# To run TDDFT-ris calculation, first you need a ground state SCF calculation, 
# just like what you usually did for any other DFT calculations.
# Then in the TD step, compared to the standard TDDFT calculation, you need two extra setup  
# 1) trun off the XC nernel,
#    %method 
#    xckernelx 0
#    xckernelc 0
#    end
# 2) use RIJK with a minimal aux basis read from external file "ris.bas",  
#    which can be generated by running the python script "python get_ris_bas.py"
#    %basis 
#        GTOAuxJName = "ris.bas"
#        GTOAuxJKName = "ris.bas"
#    end




%Compound
    # ------------------------------------
    # SCF step, setup functional/basis/mutliplicy just like usual
    # revise it as need
    # ------------------------------------
    New_Step

    ! B3LYP D3BJ def2-TZVP RIJCOSX 
    %maxcore 2000
    %pal 
    nprocs 4 
    end

    *xyzfile 0 1 example.xyz

    Step_End



    # ------------------------------------
    # TDDFT-ris step, the calculation starts 
    # from the previous SCF calculation
    # (Rtol 1e-3, becasue TDDFT-ris is a semi-empirical method, 
    # no need to be that much accurate. Default Rtol 1e-6.)
    # ------------------------------------
    New_Step

    ! B3LYP D3BJ def2-TZVP RIJK moread noiter
    %maxcore 2000
    %pal 
    nprocs 4 
    end

    %tddft 
        nroots 20
        Rtol 1e-3
    end

    %basis 
        GTOAuxJName = "ris.bas"
        GTOAuxJKName = "ris.bas"
    end

    %method 
    xckernelx 0
    xckernelc 0
    end

    Step_End

EndRun